Version 4
SHEET 1 880 680
WIRE 720 -64 672 -64
WIRE -16 192 -16 160
WIRE 720 192 576 192
WIRE 784 192 720 192
WIRE 528 256 432 256
WIRE 720 272 720 192
FLAG 720 -64 0
FLAG -16 192 0
FLAG 592 -64 Top
FLAG 576 272 0
FLAG 576 96 Top
FLAG 432 256 IN
FLAG -16 80 IN
SYMBOL 0_UofEvansville\\01_sources\\voltage_source_ue -16 112 R0
WINDOW 123 74 48 Invisible 2
WINDOW 39 0 0 Left 2
SYMATTR InstName V1
SYMATTR Value PULSE(0 3.3 0 0.1u 0.1u 1 2)
SYMATTR Value2 AC 0
SYMBOL 0_UofEvansville\\01_sources\\voltage_source_ue 624 -64 R270
WINDOW 0 32 8 VTop 2
WINDOW 3 -32 8 VBottom 2
WINDOW 123 -53 8 VBottom 2
WINDOW 39 0 0 Left 2
SYMATTR InstName V3
SYMATTR Value 24V
SYMATTR Value2 AC 0
SYMBOL 0_UofEvansville\\21_mosfet_transistors\\nmos 528 176 R0
SYMATTR InstName M1
SYMATTR Value 2N7002
SYMBOL res 560 80 R0
SYMATTR InstName R1
SYMATTR Value 10k
TEXT -50 318 Left 2 !.tran 0 10 0.1 0.02
